*Heading
** Job name: Job Model name: Model-1
** Generated by: Abaqus/CAE 2023
*Preprint, echo=NO, model=NO, history=NO, contact=NO
** ----------------------------------------------------------------
** 
** PART INSTANCE: TOPBEAM
** 
*System
          0.,      0.0127,          0.,          1.,      0.0127,          0.
          0.,0.0127000000000001,          1.
*Node
      1, 0.0450000018,           0., 0.0126999998
      2, 0.0450000018, -0.0126999998, 0.0126999998
      3, 0.0450000018, -0.0126999998,           0.
      4, 0.0450000018,           0.,           0.
      5, 0.0387312509,           0., 0.0126999998
      6, 0.0387312509, -0.0126999998, 0.0126999998
      7, 0.0299999993,           0.,           0.
      8, 0.0299999993,           0., 0.00396875013
      9, 0.0299999993, -0.0126999998,           0.
     10, 0.0299999993, -0.0126999998, 0.00396875013
     11, 0.0599999987,           0., 0.0126999998
     12, 0.0599999987, -0.0126999998, 0.0126999998
     13, 0.0599999987, -0.0126999998,           0.
     14, 0.0599999987,           0.,           0.
     15, 0.0450000018,           0., 0.0253999997
     16, 0.0450000018, -0.0126999998, 0.0253999997
     17, 0.0599999987, -0.0126999998, 0.0253999997
     18, 0.0599999987,           0., 0.0253999997
     19, 0.0149999997,           0., 0.0253999997
     20, 0.0149999997,           0., 0.0126999998
** ... 18429 like lines cut
*Element, type=C3D8R
  1, 2034, 2035, 9619, 9600,  110,  111, 2011, 2010
  2, 2035, 2036, 9620, 9619,  111,  112, 2012, 2011
  3, 2036,  117, 2026, 9620,  112,    1,  113, 2012
  4, 9600, 9619, 9621, 9601, 2010, 2011, 2014, 2013
  5, 9619, 9620, 9622, 9621, 2011, 2012, 2015, 2014
  6, 9620, 2026, 2027, 9622, 2012,  113,  114, 2015
  7, 9601, 9621, 9602, 9591, 2013, 2014, 2017, 2016
  8, 9621, 9622, 9603, 9602, 2014, 2015, 2018, 2017
  9, 9622, 2027, 2028, 9603, 2015,  114,  115, 2018
 10, 2037, 2038, 9596, 9589, 2034, 2035, 9619, 9600
 11, 2038, 2039, 9597, 9596, 2035, 2036, 9620, 9619
 12, 2039,  118, 2029, 9597, 2036,  117, 2026, 9620
 13, 9589, 9596, 9598, 9590, 9600, 9619, 9621, 9601
 14, 9596, 9597, 9599, 9598, 9619, 9620, 9622, 9621
 15, 9597, 2029, 2030, 9599, 9620, 2026, 2027, 9622
 16, 9590, 9598, 9587, 9586, 9601, 9621, 9602, 9591
 17, 9598, 9599, 9588, 9587, 9621, 9622, 9603, 9602
 18, 9599, 2030, 2031, 9588, 9622, 2027, 2028, 9603
 19, 2028, 2032, 9623, 9603,  115,  116, 2019, 2018
 20, 2032,  123, 2046, 9623,  116,    2,  119, 2019
** ... 14780 like lines cut
*Nset, nset=TOPBEAM_Set-1, generate
     1,  18449,      1
*Elset, elset=TOPBEAM_Set-1, generate
     1,  14800,      1
*Elset, elset=_TOPBEAM_INSURF_S3
    1,    2,    3,   10,   11,   12,   51,   54,   57,  423,  424,  425,  432,  433,  434,  521
  524,  527,  649,  650,  655,  656,  661,  662,  702,  703,  704,  711,  712,  713,  732,  735
  738,  747,  748,  749,  771,  772,  777,  778,  783,  784,  851,  852,  857,  858, 1000, 1002
 1004, 1057, 1058, 1061, 1062, 1233, 1234, 1237, 1238, 1271, 1272, 1273, 1277, 1278, 1279, 1481
 1482, 1483, 1496, 1497, 1498, 1511, 1512, 1513, 1526, 1527, 1528, 1541, 1542, 1543, 1556, 1557
 1558, 1571, 1572, 1573, 1586, 1587, 1588, 1601, 1602, 1603, 1616, 1617, 1618, 1631, 1632, 1633
 1646, 1647, 1648, 1676, 1677, 1682, 1683, 1688, 1689, 1963, 1964, 1969, 1970, 1975, 1976, 1996
 1997, 2002, 2003, 2028, 2029, 2030, 2037, 2038, 2039, 2046, 2049, 2052, 2241, 2242, 2245, 2246
 2291, 2292, 2293, 2297, 2298, 2299, 2537, 2540, 2543, 2582, 2583, 2584, 2629, 2630, 2635, 2636
*Elset, elset=_TOPBEAM_INSURF_S4
    41,    44,    47,    50,   413,   416,   419,   422,   532,   535,   538,   541,   544,   547,   669,   672
   675,   722,   725,   728,   731,   758,   761,   764,   865,   868,   871,   874,   877,   880,   989,   991
   993,   995,   997,   999,  1046,  1048,  1050,  1052,  1054,  1056,  1066,  1068,  1070,  1242,  1244,  1246
  1248,  1250,  1252,  1669,  1672,  1675,  1708,  1711,  1714,  1775,  1780,  1785,  1790,  1795,  1800,  1805
  1810,  1815,  1820,  1825,  1830,  1835,  1840,  1845,  1850,  1855,  1860,  1865,  1870,  1875,  1880,  1885
  1890,  1895,  1900,  1905,  1910,  1915,  1920,  1925,  1930,  1935,  1940,  1945,  1950,  1983,  1986,  1989
  2065,  2070,  2075,  2080,  2085,  2090,  2095,  2100,  2105,  2110,  2115,  2120,  2125,  2130,  2135,  2140
  2145,  2150,  2280,  2282,  2284,  2286,  2288,  2290,  2445,  2450,  2455,  2460,  2465,  2470,  2475,  2480
  2485,  2490,  2495,  2500,  2505,  2510,  2515,  2520,  2525,  2530,  2548,  2551,  2554,  2557,  2560,  2563
  2613,  2616,  2619,  2622,  2625,  2628,  2735,  2740,  2745,  2750,  2755,  2760,  2765,  2770,  2775,  2780
  2785,  2790,  2795,  2800,  2805,  2810,  2815,  2820, 14625, 14630, 14635, 14640, 14645, 14650, 14655, 14660
 14665, 14670, 14675, 14680, 14685, 14690, 14695, 14700, 14705, 14710, 14715, 14720, 14725, 14730, 14735, 14740
 14745, 14750, 14755, 14760, 14765, 14770, 14775, 14780, 14785, 14790, 14795, 14800
*Elset, elset=_TOPBEAM_INSURF_S2
   66,   67,   68,   69,   70,   71,   84,   85,   86,  461,  462,  463,  464,  465,  466,  479
  480,  481,  488,  489,  490,  566,  567,  568,  569,  578,  579,  580,  581,  582,  583,  596
  597,  598,  801,  802,  803,  804,  805,  806,  819,  820,  821,  822,  901,  902,  903,  910
  911,  912,  919,  920,  921,  922,  923,  924, 1301, 1302, 1303, 1307, 1308, 1309, 1331, 1332
 1333, 1334, 1335, 1336, 1337, 1338, 1339, 1340, 1341, 1342, 1343, 1344, 1345, 1346, 1347, 1348
 1349, 1350, 1351, 1352, 1353, 1354, 1355, 1356, 1357, 1358, 1359, 1360, 1721, 1722, 1723, 1724
 1725, 1726, 1739, 1740, 1741, 1742, 2321, 2322, 2323, 2327, 2328, 2329
*Elset, elset=_TOPBEAM_INSURF_S6
  111,  116,  121,  126,  131,  136,  141,  146,  151,  156,  161,  166,  171,  176,  181,  186
  191,  196,  201,  206,  211,  216,  221,  226,  231,  236,  241,  246,  251,  256,  261,  266
  271,  276,  281,  286,  291,  296,  301,  306,  311,  316,  321,  326,  331,  336,  341,  346
  351,  356,  361,  366,  371,  376,  381,  386,  391,  396,  401,  406, 1071, 1076, 1081, 1086
 1091, 1096, 1101, 1106, 1111, 1116, 1121, 1126, 1131, 1136, 1141, 1146, 1151, 1156, 1161, 1166
 1171, 1176, 1181, 1186, 1191, 1196, 1201, 1206, 1211, 1216, 2641, 2646, 2651, 2656, 2661, 2666
 2671, 2676, 2681, 2686, 2691, 2696, 2701, 2706, 2711, 2716, 2721, 2726
*Elset, elset=_TOPBEAM_INSURF_S5
 2163, 2164, 2165, 2178, 2179, 2180, 2193, 2194, 2195, 2208, 2209, 2210, 2223, 2224, 2225, 2238
 2239, 2240, 2363, 2364, 2365, 2378, 2379, 2380, 2393, 2394, 2395, 2408, 2409, 2410, 2423, 2424
 2425, 2438, 2439, 2440
*Surface, type=ELEMENT, name=TOPBEAM_INSURF
_TOPBEAM_INSURF_S3, S3
_TOPBEAM_INSURF_S4, S4
_TOPBEAM_INSURF_S2, S2
_TOPBEAM_INSURF_S6, S6
_TOPBEAM_INSURF_S5, S5
*Elset, elset=_TOPBEAM_BmW1_S6, generate
 1771,  1946,     5
*Elset, elset=_TOPBEAM_BmW1_S5
 1493, 1494, 1495, 1508, 1509, 1510, 1523, 1524, 1525, 1538, 1539, 1540, 1553, 1554, 1555, 1568
 1569, 1570, 1583, 1584, 1585, 1598, 1599, 1600, 1613, 1614, 1615, 1628, 1629, 1630, 1643, 1644
 1645, 1658, 1659, 1660
*Surface, type=ELEMENT, name=TOPBEAM_BmW1
_TOPBEAM_BmW1_S6, S6
_TOPBEAM_BmW1_S5, S5
*Elset, elset=_TOPBEAM_BmW2_S6
  2731,  2736,  2741,  2746,  2751,  2756,  2761,  2766,  2771,  2776,  2781,  2786,  2791,  2796,  2801,  2806
  2811,  2816, 14621, 14626, 14631, 14636, 14641, 14646, 14651, 14656, 14661, 14666, 14671, 14676, 14681, 14686
 14691, 14696, 14701, 14706, 14711, 14716, 14721, 14726, 14731, 14736, 14741, 14746, 14751, 14756, 14761, 14766
 14771, 14776, 14781, 14786, 14791, 14796
*Elset, elset=_TOPBEAM_BmW2_S4, generate
 2645,  2730,     5
*Surface, type=ELEMENT, name=TOPBEAM_BmW2
_TOPBEAM_BmW2_S6, S6
_TOPBEAM_BmW2_S4, S4
*Elset, elset=_TOPBEAM_BmW3_S6
 2061, 2066, 2071, 2076, 2081, 2086, 2091, 2096, 2101, 2106, 2111, 2116, 2121, 2126, 2131, 2136
 2141, 2146, 2441, 2446, 2451, 2456, 2461, 2466, 2471, 2476, 2481, 2486, 2491, 2496, 2501, 2506
 2511, 2516, 2521, 2526
*Elset, elset=_TOPBEAM_BmW3_S3
 2151, 2152, 2153, 2166, 2167, 2168, 2181, 2182, 2183, 2196, 2197, 2198, 2211, 2212, 2213, 2226
 2227, 2228, 2351, 2352, 2353, 2366, 2367, 2368, 2381, 2382, 2383, 2396, 2397, 2398, 2411, 2412
 2413, 2426, 2427, 2428
*Surface, type=ELEMENT, name=TOPBEAM_BmW3
_TOPBEAM_BmW3_S6, S6
_TOPBEAM_BmW3_S3, S3
** Section: Section-1
*Solid Section, elset=TOPBEAM_Set-1, material=STEEL
,
** ----------------------------------------------------------------
** 
** PART INSTANCE: BOTBEAM
** 
*System
          0.,      0.0127,          0.,         -1.,      0.0127,1.22464679914735e-16
-1.22464679914735e-16,0.0126999999999999,         -1.
*Node
  18450, 0.0450000018,           0., 0.0126999998
  18451, 0.0450000018, -0.0126999998, 0.0126999998
  18452, 0.0450000018, -0.0126999998,           0.
  18453, 0.0450000018,           0., 1.53481963e-10
  18454, 0.0387312509,           0., 0.0126999998
  18455, 0.0387312509, -0.0126999998, 0.0126999998
  18456, 0.0299999993,           0., 1.53481963e-10
  18457, 0.0299999993,           0., 0.00396875013
  18458, 0.0299999993, -0.0126999998,           0.
  18459, 0.0299999993, -0.0126999998, 0.00396875013
  18460, 0.0599999987,           0., 0.0126999998
  18461, 0.0599999987, -0.0126999998, 0.0126999998
  18462, 0.0599999987, -0.0126999998,           0.
  18463, 0.0599999987,           0., 1.53481963e-10
  18464, 0.0450000018,           0., 0.0253999997
  18465, 0.0450000018, -0.0126999998, 0.0253999997
  18466, 0.0599999987, -0.0126999998, 0.0253999997
  18467, 0.0599999987,           0., 0.0253999997
  18468, 0.0149999997,           0., 0.0253999997
  18469, 0.0149999997,           0., 0.0126999998
** ... 18429 like lines cut
*Element, type=C3D8R
14801, 20483, 20484, 28068, 28049, 18559, 18560, 20460, 20459
14802, 20484, 20485, 28069, 28068, 18560, 18561, 20461, 20460
14803, 20485, 18566, 20475, 28069, 18561, 18450, 18562, 20461
14804, 28049, 28068, 28070, 28050, 20459, 20460, 20463, 20462
14805, 28068, 28069, 28071, 28070, 20460, 20461, 20464, 20463
14806, 28069, 20475, 20476, 28071, 20461, 18562, 18563, 20464
14807, 28050, 28070, 28051, 28040, 20462, 20463, 20466, 20465
14808, 28070, 28071, 28052, 28051, 20463, 20464, 20467, 20466
14809, 28071, 20476, 20477, 28052, 20464, 18563, 18564, 20467
14810, 20486, 20487, 28045, 28038, 20483, 20484, 28068, 28049
14811, 20487, 20488, 28046, 28045, 20484, 20485, 28069, 28068
14812, 20488, 18567, 20478, 28046, 20485, 18566, 20475, 28069
14813, 28038, 28045, 28047, 28039, 28049, 28068, 28070, 28050
14814, 28045, 28046, 28048, 28047, 28068, 28069, 28071, 28070
14815, 28046, 20478, 20479, 28048, 28069, 20475, 20476, 28071
14816, 28039, 28047, 28036, 28035, 28050, 28070, 28051, 28040
14817, 28047, 28048, 28037, 28036, 28070, 28071, 28052, 28051
14818, 28048, 20479, 20480, 28037, 28071, 20476, 20477, 28052
14819, 20477, 20481, 28072, 28052, 18564, 18565, 20468, 20467
14820, 20481, 18572, 20495, 28072, 18565, 18451, 18568, 20468
** ... 14780 like lines cut
*Nset, nset=BOTBEAM_Set-1, generate
 18450,  36898,      1
*Elset, elset=BOTBEAM_Set-1, generate
 14801,  29600,      1
*Elset, elset=_BOTBEAM_INSURF_S3
14801,14802,14803,14810,14811,14812,14851,14854,14857,15223,15224,15225,15232,15233,15234,15321
15324,15327,15449,15450,15455,15456,15461,15462,15502,15503,15504,15511,15512,15513,15532,15535
15538,15547,15548,15549,15571,15572,15577,15578,15583,15584,15651,15652,15657,15658,15800,15802
15804,15857,15858,15861,15862,16033,16034,16037,16038,16071,16072,16073,16077,16078,16079,16281
16282,16283,16296,16297,16298,16311,16312,16313,16326,16327,16328,16341,16342,16343,16356,16357
16358,16371,16372,16373,16386,16387,16388,16401,16402,16403,16416,16417,16418,16431,16432,16433
16446,16447,16448,16476,16477,16482,16483,16488,16489,16763,16764,16769,16770,16775,16776,16796
16797,16802,16803,16828,16829,16830,16837,16838,16839,16846,16849,16852,17041,17042,17045,17046
17091,17092,17093,17097,17098,17099,17337,17340,17343,17382,17383,17384,17429,17430,17435,17436
*Elset, elset=_BOTBEAM_INSURF_S4
 14841, 14844, 14847, 14850, 15213, 15216, 15219, 15222, 15332, 15335, 15338, 15341, 15344, 15347, 15469, 15472
 15475, 15522, 15525, 15528, 15531, 15558, 15561, 15564, 15665, 15668, 15671, 15674, 15677, 15680, 15789, 15791
 15793, 15795, 15797, 15799, 15846, 15848, 15850, 15852, 15854, 15856, 15866, 15868, 15870, 16042, 16044, 16046
 16048, 16050, 16052, 16469, 16472, 16475, 16508, 16511, 16514, 16575, 16580, 16585, 16590, 16595, 16600, 16605
 16610, 16615, 16620, 16625, 16630, 16635, 16640, 16645, 16650, 16655, 16660, 16665, 16670, 16675, 16680, 16685
 16690, 16695, 16700, 16705, 16710, 16715, 16720, 16725, 16730, 16735, 16740, 16745, 16750, 16783, 16786, 16789
 16865, 16870, 16875, 16880, 16885, 16890, 16895, 16900, 16905, 16910, 16915, 16920, 16925, 16930, 16935, 16940
 16945, 16950, 17080, 17082, 17084, 17086, 17088, 17090, 17245, 17250, 17255, 17260, 17265, 17270, 17275, 17280
 17285, 17290, 17295, 17300, 17305, 17310, 17315, 17320, 17325, 17330, 17348, 17351, 17354, 17357, 17360, 17363
 17413, 17416, 17419, 17422, 17425, 17428, 17535, 17540, 17545, 17550, 17555, 17560, 17565, 17570, 17575, 17580
 17585, 17590, 17595, 17600, 17605, 17610, 17615, 17620, 29425, 29430, 29435, 29440, 29445, 29450, 29455, 29460
 29465, 29470, 29475, 29480, 29485, 29490, 29495, 29500, 29505, 29510, 29515, 29520, 29525, 29530, 29535, 29540
 29545, 29550, 29555, 29560, 29565, 29570, 29575, 29580, 29585, 29590, 29595, 29600
*Elset, elset=_BOTBEAM_INSURF_S2
14866,14867,14868,14869,14870,14871,14884,14885,14886,15261,15262,15263,15264,15265,15266,15279
15280,15281,15288,15289,15290,15366,15367,15368,15369,15378,15379,15380,15381,15382,15383,15396
15397,15398,15601,15602,15603,15604,15605,15606,15619,15620,15621,15622,15701,15702,15703,15710
15711,15712,15719,15720,15721,15722,15723,15724,16101,16102,16103,16107,16108,16109,16131,16132
16133,16134,16135,16136,16137,16138,16139,16140,16141,16142,16143,16144,16145,16146,16147,16148
16149,16150,16151,16152,16153,16154,16155,16156,16157,16158,16159,16160,16521,16522,16523,16524
16525,16526,16539,16540,16541,16542,17121,17122,17123,17127,17128,17129
*Elset, elset=_BOTBEAM_INSURF_S6
14911,14916,14921,14926,14931,14936,14941,14946,14951,14956,14961,14966,14971,14976,14981,14986
14991,14996,15001,15006,15011,15016,15021,15026,15031,15036,15041,15046,15051,15056,15061,15066
15071,15076,15081,15086,15091,15096,15101,15106,15111,15116,15121,15126,15131,15136,15141,15146
15151,15156,15161,15166,15171,15176,15181,15186,15191,15196,15201,15206,15871,15876,15881,15886
15891,15896,15901,15906,15911,15916,15921,15926,15931,15936,15941,15946,15951,15956,15961,15966
15971,15976,15981,15986,15991,15996,16001,16006,16011,16016,17441,17446,17451,17456,17461,17466
17471,17476,17481,17486,17491,17496,17501,17506,17511,17516,17521,17526
*Elset, elset=_BOTBEAM_INSURF_S5
16963,16964,16965,16978,16979,16980,16993,16994,16995,17008,17009,17010,17023,17024,17025,17038
17039,17040,17163,17164,17165,17178,17179,17180,17193,17194,17195,17208,17209,17210,17223,17224
17225,17238,17239,17240
*Surface, type=ELEMENT, name=BOTBEAM_INSURF
_BOTBEAM_INSURF_S3, S3
_BOTBEAM_INSURF_S4, S4
_BOTBEAM_INSURF_S2, S2
_BOTBEAM_INSURF_S6, S6
_BOTBEAM_INSURF_S5, S5
*Elset, elset=_BOTBEAM_BmW1_S6, generate
16571, 16746,     5
*Elset, elset=_BOTBEAM_BmW1_S5
16293,16294,16295,16308,16309,16310,16323,16324,16325,16338,16339,16340,16353,16354,16355,16368
16369,16370,16383,16384,16385,16398,16399,16400,16413,16414,16415,16428,16429,16430,16443,16444
16445,16458,16459,16460
*Surface, type=ELEMENT, name=BOTBEAM_BmW1
_BOTBEAM_BmW1_S6, S6
_BOTBEAM_BmW1_S5, S5
*Elset, elset=_BOTBEAM_BmW2_S6
 17531, 17536, 17541, 17546, 17551, 17556, 17561, 17566, 17571, 17576, 17581, 17586, 17591, 17596, 17601, 17606
 17611, 17616, 29421, 29426, 29431, 29436, 29441, 29446, 29451, 29456, 29461, 29466, 29471, 29476, 29481, 29486
 29491, 29496, 29501, 29506, 29511, 29516, 29521, 29526, 29531, 29536, 29541, 29546, 29551, 29556, 29561, 29566
 29571, 29576, 29581, 29586, 29591, 29596
*Elset, elset=_BOTBEAM_BmW2_S4, generate
17445, 17530,     5
*Surface, type=ELEMENT, name=BOTBEAM_BmW2
_BOTBEAM_BmW2_S6, S6
_BOTBEAM_BmW2_S4, S4
*Elset, elset=_BOTBEAM_BmW3_S6
16861,16866,16871,16876,16881,16886,16891,16896,16901,16906,16911,16916,16921,16926,16931,16936
16941,16946,17241,17246,17251,17256,17261,17266,17271,17276,17281,17286,17291,17296,17301,17306
17311,17316,17321,17326
*Elset, elset=_BOTBEAM_BmW3_S3
16951,16952,16953,16966,16967,16968,16981,16982,16983,16996,16997,16998,17011,17012,17013,17026
17027,17028,17151,17152,17153,17166,17167,17168,17181,17182,17183,17196,17197,17198,17211,17212
17213,17226,17227,17228
*Surface, type=ELEMENT, name=BOTBEAM_BmW3
_BOTBEAM_BmW3_S6, S6
_BOTBEAM_BmW3_S3, S3
** Section: Section-1
*Solid Section, elset=BOTBEAM_Set-1, material=STEEL
,
** ----------------------------------------------------------------
** 
** PART INSTANCE: TOPWASHER-1
** 
*System
  -0.0299995,          0.,   -0.014287,   0.9700005,          0.,   -0.014287
*Node
  36899, 0.00403331174, 0.0016706523,           0.
  36900, 0.00308696297, 0.00308696297,           0.
  36901, 0.0016706523, 0.00403331174,           0.
  36902,           0., 0.00436562486,           0.
  36903, -0.0016706523, 0.00403331174,           0.
  36904, -0.00308696297, 0.00308696297,           0.
  36905, -0.00403331174, 0.0016706523,           0.
  36906, -0.00436562486,           0.,           0.
  36907, -0.00403331174, -0.0016706523,           0.
  36908, -0.00308696297, -0.00308696297,           0.
  36909, -0.0016706523, -0.00403331174,           0.
  36910,           0., -0.00436562486,           0.
  36911, 0.0016706523, -0.00403331174,           0.
  36912, 0.00308696297, -0.00308696297,           0.
  36913, 0.00403331174, -0.0016706523,           0.
  36914, 0.00436562486,           0.,           0.
  36915, 0.00837757345, 0.0024598774,           0.
  36916, 0.00734519493, 0.00472046994,           0.
  36917, 0.00571775297, 0.00659863837,           0.
  36918, 0.00362709234, 0.00794222392,           0.
** ... 112 like lines cut
*Element, type=C3D8R
29601, 36966, 37007, 37030, 36965, 36900, 36941, 36964, 36899
29602, 37030, 37012, 37003, 36965, 36964, 36946, 36937, 36899
29603, 37007, 36966, 36967, 37029, 36941, 36900, 36901, 36963
29604, 36984, 36983, 37025, 37021, 36918, 36917, 36959, 36955
29605, 37007, 37029, 37021, 37025, 36941, 36963, 36955, 36959
29606, 37008, 37015, 37021, 37029, 36942, 36949, 36955, 36963
29607, 37015, 37008, 36968, 37020, 36949, 36942, 36902, 36954
29608, 36968, 36969, 37010, 37020, 36902, 36903, 36944, 36954
29609, 37015, 37020, 36986, 36985, 36949, 36954, 36920, 36919
29610, 36988, 36987, 37010, 37013, 36922, 36921, 36944, 36947
29611, 37010, 36969, 36970, 37013, 36944, 36903, 36904, 36947
29612, 37019, 37026, 37013, 37006, 36953, 36960, 36947, 36940
29613, 36971, 36972, 37019, 37006, 36905, 36906, 36953, 36940
29614, 36991, 37028, 37009, 36992, 36925, 36962, 36943, 36926
29615, 36973, 37014, 37009, 36972, 36907, 36948, 36943, 36906
29616, 36974, 37005, 37014, 36973, 36908, 36939, 36948, 36907
29617, 36994, 37005, 37022, 36995, 36928, 36939, 36956, 36929
29618, 37014, 37005, 36994, 36993, 36948, 36939, 36928, 36927
29619, 37016, 37022, 36975, 36976, 36950, 36956, 36909, 36910
29620, 37024, 37023, 36999, 36998, 36958, 36957, 36933, 36932
** ... 27 like lines cut
*Nset, nset=TOPWASHER-1_Set-1, generate
36899, 37030,    1
*Elset, elset=TOPWASHER-1_Set-1, generate
29601, 29647,   1
*Elset, elset=_TOPWASHER-1_WSBOT_S1, generate
29601, 29647,   1
*Surface, type=ELEMENT, name=TOPWASHER-1_WSBOT
_TOPWASHER-1_WSBOT_S1, S1
*Elset, elset=_TOPWASHER-1_WSTOP_S2, generate
29601, 29647,   1
*Surface, type=ELEMENT, name=TOPWASHER-1_WSTOP
_TOPWASHER-1_WSTOP_S2, S2
** Section: Section-1
*Solid Section, elset=TOPWASHER-1_Set-1, material=STEEL
,
** ----------------------------------------------------------------
** 
** PART INSTANCE: BOTWASHER-1
** 
*System
-0.0300004625,          0.,      0.0127,0.9699995375,          0.,      0.0127
*Node
  37031, 0.00403331174, 0.0016706523,           0.
  37032, 0.00308696297, 0.00308696297,           0.
  37033, 0.0016706523, 0.00403331174,           0.
  37034,           0., 0.00436562486,           0.
  37035, -0.0016706523, 0.00403331174,           0.
  37036, -0.00308696297, 0.00308696297,           0.
  37037, -0.00403331174, 0.0016706523,           0.
  37038, -0.00436562486,           0.,           0.
  37039, -0.00403331174, -0.0016706523,           0.
  37040, -0.00308696297, -0.00308696297,           0.
  37041, -0.0016706523, -0.00403331174,           0.
  37042,           0., -0.00436562486,           0.
  37043, 0.0016706523, -0.00403331174,           0.
  37044, 0.00308696297, -0.00308696297,           0.
  37045, 0.00403331174, -0.0016706523,           0.
  37046, 0.00436562486,           0.,           0.
  37047, 0.00837757345, 0.0024598774,           0.
  37048, 0.00734519493, 0.00472046994,           0.
  37049, 0.00571775297, 0.00659863837,           0.
  37050, 0.00362709234, 0.00794222392,           0.
** ... 112 like lines cut
*Element, type=C3D8R
29648, 37098, 37139, 37162, 37097, 37032, 37073, 37096, 37031
29649, 37162, 37144, 37135, 37097, 37096, 37078, 37069, 37031
29650, 37139, 37098, 37099, 37161, 37073, 37032, 37033, 37095
29651, 37116, 37115, 37157, 37153, 37050, 37049, 37091, 37087
29652, 37139, 37161, 37153, 37157, 37073, 37095, 37087, 37091
29653, 37140, 37147, 37153, 37161, 37074, 37081, 37087, 37095
29654, 37147, 37140, 37100, 37152, 37081, 37074, 37034, 37086
29655, 37100, 37101, 37142, 37152, 37034, 37035, 37076, 37086
29656, 37147, 37152, 37118, 37117, 37081, 37086, 37052, 37051
29657, 37120, 37119, 37142, 37145, 37054, 37053, 37076, 37079
29658, 37142, 37101, 37102, 37145, 37076, 37035, 37036, 37079
29659, 37151, 37158, 37145, 37138, 37085, 37092, 37079, 37072
29660, 37103, 37104, 37151, 37138, 37037, 37038, 37085, 37072
29661, 37123, 37160, 37141, 37124, 37057, 37094, 37075, 37058
29662, 37105, 37146, 37141, 37104, 37039, 37080, 37075, 37038
29663, 37106, 37137, 37146, 37105, 37040, 37071, 37080, 37039
29664, 37126, 37137, 37154, 37127, 37060, 37071, 37088, 37061
29665, 37146, 37137, 37126, 37125, 37080, 37071, 37060, 37059
29666, 37148, 37154, 37107, 37108, 37082, 37088, 37041, 37042
29667, 37156, 37155, 37131, 37130, 37090, 37089, 37065, 37064
** ... 27 like lines cut
*Nset, nset=BOTWASHER-1_Set-1, generate
37031, 37162,    1
*Elset, elset=BOTWASHER-1_Set-1, generate
29648, 29694,   1
*Elset, elset=_BOTWASHER-1_WSBOT_S1, generate
29648, 29694,   1
*Surface, type=ELEMENT, name=BOTWASHER-1_WSBOT
_BOTWASHER-1_WSBOT_S1, S1
*Elset, elset=_BOTWASHER-1_WSTOP_S2, generate
29648, 29694,   1
*Surface, type=ELEMENT, name=BOTWASHER-1_WSTOP
_BOTWASHER-1_WSTOP_S2, S2
** Section: Section-1
*Solid Section, elset=BOTWASHER-1_Set-1, material=STEEL
,
** ----------------------------------------------------------------
** 
** PART INSTANCE: NUT-1
** 
*System
       -0.03,          0.,    0.014287,        0.97,          0.,    0.014287
*Node
  37163, 0.00366664678, 0.00151877489,           0.
  37164, 0.0028063301, 0.0028063301,           0.
  37165, 0.00151877489, 0.00366664678,           0.
  37166,           0., 0.00396875013,           0.
  37167, -0.00151877489, 0.00366664678,           0.
  37168, -0.0028063301, 0.0028063301,           0.
  37169, -0.00366664678, 0.00151877489,           0.
  37170, -0.00396875013,           0.,           0.
  37171, -0.00366664678, -0.00151877489,           0.
  37172, -0.0028063301, -0.0028063301,           0.
  37173, -0.00151877489, -0.00366664678,           0.
  37174,           0., -0.00396875013,           0.
  37175, 0.00151877489, -0.00366664678,           0.
  37176, 0.0028063301, -0.0028063301,           0.
  37177, 0.00366664678, -0.00151877489,           0.
  37178, 0.00396875013,           0.,           0.
  37179, 0.00634999992, 0.00366617413,           0.
  37180,           0., 0.00733234826,           0.
  37181, 0.00634999992, -0.00366617413,           0.
  37182,           0., -0.00733234826,           0.
** ... 133 like lines cut
*Element, type=C3D8R
29695, 37164, 37163, 37199, 37206, 37215, 37214, 37250, 37257
29696, 37179, 37199, 37163, 37188, 37230, 37250, 37214, 37239
29697, 37208, 37165, 37164, 37206, 37259, 37216, 37215, 37257
29698, 37208, 37206, 37185, 37186, 37259, 37257, 37236, 37237
29699, 37180, 37204, 37208, 37186, 37231, 37255, 37259, 37237
29700, 37168, 37167, 37209, 37201, 37219, 37218, 37260, 37252
29701, 37169, 37168, 37201, 37198, 37220, 37219, 37252, 37249
29702, 37184, 37198, 37201, 37196, 37235, 37249, 37252, 37247
29703, 37184, 37193, 37210, 37198, 37235, 37244, 37261, 37249
29704, 37211, 37210, 37193, 37194, 37262, 37261, 37244, 37245
29705, 37183, 37197, 37211, 37194, 37234, 37248, 37262, 37245
29706, 37212, 37202, 37191, 37192, 37263, 37253, 37242, 37243
29707, 37182, 37205, 37212, 37192, 37233, 37256, 37263, 37243
29708, 37190, 37203, 37213, 37189, 37241, 37254, 37264, 37240
29709, 37207, 37200, 37203, 37190, 37258, 37251, 37254, 37241
29710, 37207, 37177, 37176, 37200, 37258, 37228, 37227, 37251
29711, 37178, 37177, 37207, 37187, 37229, 37228, 37258, 37238
29712, 37187, 37188, 37163, 37178, 37238, 37239, 37214, 37229
29713, 37175, 37203, 37200, 37176, 37226, 37254, 37251, 37227
29714, 37183, 37191, 37202, 37197, 37234, 37242, 37253, 37248
** ... 48 like lines cut
*Nset, nset=NUT-1_Set-1, generate
37163, 37315,    1
*Elset, elset=NUT-1_Set-1, generate
29695, 29762,   1
*Elset, elset=_NUT-1_NB_S3
29695,29700,29701,29711,29718,29721,29725,29726,29729,29734,29735,29745,29752,29755,29759,29760
*Elset, elset=_NUT-1_NB_S4
29697,29710,29724,29728,29731,29744,29758,29762
*Elset, elset=_NUT-1_NB_S5
29712,29727,29746,29761
*Elset, elset=_NUT-1_NB_S6
29713,29723,29747,29757
*Surface, type=ELEMENT, name=NUT-1_NB
_NUT-1_NB_S3, S3
_NUT-1_NB_S4, S4
_NUT-1_NB_S6, S6
_NUT-1_NB_S5, S5
*Elset, elset=_NUT-1_NW_S1, generate
29695, 29728,   1
*Surface, type=ELEMENT, name=NUT-1_NW
_NUT-1_NW_S1, S1
** Section: Section-1
*Solid Section, elset=NUT-1_Set-1, material=STEEL
,
** ----------------------------------------------------------------
** 
** PART INSTANCE: BOLT-1
** 
*System
   -0.029999,          0.,   -0.019446,    0.970001,          0.,   -0.019446
*Node
  37316, 0.00396875013,           0., 0.0388937518
  37317, 0.00396875013,           0., 0.0337343737
  37318, 0.00396875013,           0., 0.00515937479
  37319, 0.00634999992, -0.00366617413, 0.00515937479
  37320, 0.00634999992, 0.00366617413, 0.00515937479
  37321,           0., 0.00733234826, 0.00515937479
  37322, -0.00634999992, 0.00366617413, 0.00515937479
  37323, -0.00634999992, -0.00366617413, 0.00515937479
  37324,           0., -0.00733234826, 0.00515937479
  37325,           0., 0.00733234826, -2.07871192e-10
  37326, 0.00634999992, 0.00366617413, -2.07871192e-10
  37327, 0.00634999992, -0.00366617413, -2.07871192e-10
  37328,           0., -0.00733234826, -2.07871192e-10
  37329, -0.00634999992, -0.00366617413, -2.07871192e-10
  37330, -0.00634999992, 0.00366617413, -2.07871192e-10
  37331, 0.00396875013,           0., 0.0432593748
  37332, 0.00366664678, 0.00151877489, 0.0388937518
  37333, 0.0028063301, 0.0028063301, 0.0388937518
  37334, 0.00151877489, 0.00366664678, 0.0388937518
  37335,           0., 0.00396875013, 0.0388937518
** ... 814 like lines cut
*Element, type=C3D8R
29763, 37796, 37475, 37476, 37797, 37423, 37334, 37335, 37424
29764, 37797, 37476, 37477, 37813, 37424, 37335, 37336, 37440
29765, 37795, 37474, 37475, 37796, 37422, 37333, 37334, 37423
29766, 37804, 37805, 37799, 37806, 37431, 37432, 37426, 37433
29767, 37798, 37473, 37474, 37795, 37425, 37332, 37333, 37422
29768, 37816, 37800, 37799, 37818, 37443, 37427, 37426, 37445
29769, 37819, 37804, 37806, 37801, 37446, 37431, 37433, 37428
29770, 37805, 37803, 37797, 37813, 37432, 37430, 37424, 37440
29771, 37811, 37810, 37801, 37812, 37438, 37437, 37428, 37439
29772, 37809, 37807, 37802, 37819, 37436, 37434, 37429, 37446
29773, 37796, 37797, 37803, 37795, 37423, 37424, 37430, 37422
29774, 37803, 37805, 37804, 37808, 37430, 37432, 37431, 37435
29775, 37813, 37477, 37478, 37814, 37440, 37336, 37337, 37441
29776, 37815, 37814, 37478, 37479, 37442, 37441, 37337, 37338
29777, 37480, 37818, 37815, 37479, 37339, 37445, 37442, 37338
29778, 37816, 37818, 37480, 37481, 37443, 37445, 37339, 37340
29779, 37798, 37807, 37472, 37473, 37425, 37434, 37316, 37332
29780, 37481, 37482, 37800, 37816, 37340, 37341, 37427, 37443
29781, 37482, 37483, 37817, 37800, 37341, 37342, 37444, 37427
29782, 37484, 37812, 37817, 37483, 37343, 37439, 37444, 37342
** ... 586 like lines cut
*Nset, nset=BOLT-1_Set-1, generate
37316, 38149,    1
*Elset, elset=BOLT-1_Set-1, generate
29763, 30368,    1
*Elset, elset=_BOLT-1_BlW_S1, generate
30211, 30241,    1
*Surface, type=ELEMENT, name=BOLT-1_BlW
_BOLT-1_BlW_S1, S1
*Elset, elset=_BOLT-1_BN_S4
29763,29764,29765,29767,29775,29795,29796,29797,29799,29807
*Elset, elset=_BOLT-1_BN_S5
29776,29778,29779,29784,29786,29808,29810,29811,29816,29818
*Elset, elset=_BOLT-1_BN_S6
29777,29782,29783,29809,29814,29815
*Elset, elset=_BOLT-1_BN_S3
29780,29781,29791,29812,29813,29823
*Surface, type=ELEMENT, name=BOLT-1_BN
_BOLT-1_BN_S4, S4
_BOLT-1_BN_S5, S5
_BOLT-1_BN_S6, S6
_BOLT-1_BN_S3, S3
** Section: Section-1
*Solid Section, elset=BOLT-1_Set-1, material=STEEL
,
** ----------------------------------------------------------------
** 
** PART INSTANCE: BPT-1
** 
*System
   -0.029999,          0.,    0.016868,    0.970001,          0.,    0.016868
*Node
  38150,           0.,           0.,           0.
*Nset, nset=BPT-1-RefPt_
38150, 
*Nset, nset=BPT-1_Set-1
38150,
** ----------------------------------------------------------------
** 
** PART INSTANCE: NPT-1
** 
*System
   -0.029999,          0.,    0.016868,    0.970001,          0.,    0.016868
*Node
  38151,           0.,           0.,           0.
*Nset, nset=NPT-1-RefPt_
38151, 
*Nset, nset=NPT-1_Set-1
38151,
** ----------------------------------------------------------------
** 
** PART INSTANCE: TOPWASHER-2
** 
*System
5.00000000042133e-07,          0.,   -0.014287,   1.0000005,          0.,   -0.014287
*Node
  38152, 0.00403331174, 0.0016706523,           0.
  38153, 0.00308696297, 0.00308696297,           0.
  38154, 0.0016706523, 0.00403331174,           0.
  38155,           0., 0.00436562486,           0.
  38156, -0.0016706523, 0.00403331174,           0.
  38157, -0.00308696297, 0.00308696297,           0.
  38158, -0.00403331174, 0.0016706523,           0.
  38159, -0.00436562486,           0.,           0.
  38160, -0.00403331174, -0.0016706523,           0.
  38161, -0.00308696297, -0.00308696297,           0.
  38162, -0.0016706523, -0.00403331174,           0.
  38163,           0., -0.00436562486,           0.
  38164, 0.0016706523, -0.00403331174,           0.
  38165, 0.00308696297, -0.00308696297,           0.
  38166, 0.00403331174, -0.0016706523,           0.
  38167, 0.00436562486,           0.,           0.
  38168, 0.00837757345, 0.0024598774,           0.
  38169, 0.00734519493, 0.00472046994,           0.
  38170, 0.00571775297, 0.00659863837,           0.
  38171, 0.00362709234, 0.00794222392,           0.
** ... 112 like lines cut
*Element, type=C3D8R
30369, 38219, 38260, 38283, 38218, 38153, 38194, 38217, 38152
30370, 38283, 38265, 38256, 38218, 38217, 38199, 38190, 38152
30371, 38260, 38219, 38220, 38282, 38194, 38153, 38154, 38216
30372, 38237, 38236, 38278, 38274, 38171, 38170, 38212, 38208
30373, 38260, 38282, 38274, 38278, 38194, 38216, 38208, 38212
30374, 38261, 38268, 38274, 38282, 38195, 38202, 38208, 38216
30375, 38268, 38261, 38221, 38273, 38202, 38195, 38155, 38207
30376, 38221, 38222, 38263, 38273, 38155, 38156, 38197, 38207
30377, 38268, 38273, 38239, 38238, 38202, 38207, 38173, 38172
30378, 38241, 38240, 38263, 38266, 38175, 38174, 38197, 38200
30379, 38263, 38222, 38223, 38266, 38197, 38156, 38157, 38200
30380, 38272, 38279, 38266, 38259, 38206, 38213, 38200, 38193
30381, 38224, 38225, 38272, 38259, 38158, 38159, 38206, 38193
30382, 38244, 38281, 38262, 38245, 38178, 38215, 38196, 38179
30383, 38226, 38267, 38262, 38225, 38160, 38201, 38196, 38159
30384, 38227, 38258, 38267, 38226, 38161, 38192, 38201, 38160
30385, 38247, 38258, 38275, 38248, 38181, 38192, 38209, 38182
30386, 38267, 38258, 38247, 38246, 38201, 38192, 38181, 38180
30387, 38269, 38275, 38228, 38229, 38203, 38209, 38162, 38163
30388, 38277, 38276, 38252, 38251, 38211, 38210, 38186, 38185
** ... 27 like lines cut
*Nset, nset=TOPWASHER-2_Set-1, generate
38152, 38283,    1
*Elset, elset=TOPWASHER-2_Set-1, generate
30369, 30415,   1
*Elset, elset=_TOPWASHER-2_WSBOT_S1, generate
30369, 30415,   1
*Surface, type=ELEMENT, name=TOPWASHER-2_WSBOT
_TOPWASHER-2_WSBOT_S1, S1
*Elset, elset=_TOPWASHER-2_WSTOP_S2, generate
30369, 30415,   1
*Surface, type=ELEMENT, name=TOPWASHER-2_WSTOP
_TOPWASHER-2_WSTOP_S2, S2
** Section: Section-1
*Solid Section, elset=TOPWASHER-2_Set-1, material=STEEL
,
** ----------------------------------------------------------------
** 
** PART INSTANCE: TOPWASHER-3
** 
*System
   0.0300005,          0.,   -0.014287,   1.0300005,          0.,   -0.014287
*Node
  38284, 0.00403331174, 0.0016706523,           0.
  38285, 0.00308696297, 0.00308696297,           0.
  38286, 0.0016706523, 0.00403331174,           0.
  38287,           0., 0.00436562486,           0.
  38288, -0.0016706523, 0.00403331174,           0.
  38289, -0.00308696297, 0.00308696297,           0.
  38290, -0.00403331174, 0.0016706523,           0.
  38291, -0.00436562486,           0.,           0.
  38292, -0.00403331174, -0.0016706523,           0.
  38293, -0.00308696297, -0.00308696297,           0.
  38294, -0.0016706523, -0.00403331174,           0.
  38295,           0., -0.00436562486,           0.
  38296, 0.0016706523, -0.00403331174,           0.
  38297, 0.00308696297, -0.00308696297,           0.
  38298, 0.00403331174, -0.0016706523,           0.
  38299, 0.00436562486,           0.,           0.
  38300, 0.00837757345, 0.0024598774,           0.
  38301, 0.00734519493, 0.00472046994,           0.
  38302, 0.00571775297, 0.00659863837,           0.
  38303, 0.00362709234, 0.00794222392,           0.
** ... 112 like lines cut
*Element, type=C3D8R
30416, 38351, 38392, 38415, 38350, 38285, 38326, 38349, 38284
30417, 38415, 38397, 38388, 38350, 38349, 38331, 38322, 38284
30418, 38392, 38351, 38352, 38414, 38326, 38285, 38286, 38348
30419, 38369, 38368, 38410, 38406, 38303, 38302, 38344, 38340
30420, 38392, 38414, 38406, 38410, 38326, 38348, 38340, 38344
30421, 38393, 38400, 38406, 38414, 38327, 38334, 38340, 38348
30422, 38400, 38393, 38353, 38405, 38334, 38327, 38287, 38339
30423, 38353, 38354, 38395, 38405, 38287, 38288, 38329, 38339
30424, 38400, 38405, 38371, 38370, 38334, 38339, 38305, 38304
30425, 38373, 38372, 38395, 38398, 38307, 38306, 38329, 38332
30426, 38395, 38354, 38355, 38398, 38329, 38288, 38289, 38332
30427, 38404, 38411, 38398, 38391, 38338, 38345, 38332, 38325
30428, 38356, 38357, 38404, 38391, 38290, 38291, 38338, 38325
30429, 38376, 38413, 38394, 38377, 38310, 38347, 38328, 38311
30430, 38358, 38399, 38394, 38357, 38292, 38333, 38328, 38291
30431, 38359, 38390, 38399, 38358, 38293, 38324, 38333, 38292
30432, 38379, 38390, 38407, 38380, 38313, 38324, 38341, 38314
30433, 38399, 38390, 38379, 38378, 38333, 38324, 38313, 38312
30434, 38401, 38407, 38360, 38361, 38335, 38341, 38294, 38295
30435, 38409, 38408, 38384, 38383, 38343, 38342, 38318, 38317
** ... 27 like lines cut
*Nset, nset=TOPWASHER-3_Set-1, generate
38284, 38415,    1
*Elset, elset=TOPWASHER-3_Set-1, generate
30416, 30462,   1
*Elset, elset=_TOPWASHER-3_WSBOT_S1, generate
30416, 30462,   1
*Surface, type=ELEMENT, name=TOPWASHER-3_WSBOT
_TOPWASHER-3_WSBOT_S1, S1
*Elset, elset=_TOPWASHER-3_WSTOP_S2, generate
30416, 30462,   1
*Surface, type=ELEMENT, name=TOPWASHER-3_WSTOP
_TOPWASHER-3_WSTOP_S2, S2
** Section: Section-1
*Solid Section, elset=TOPWASHER-3_Set-1, material=STEEL
,
** ----------------------------------------------------------------
** 
** PART INSTANCE: BOTWASHER-2
** 
*System
-4.62500000047994e-07,          0.,      0.0127,0.9999995375,          0.,      0.0127
*Node
  38416, 0.00403331174, 0.0016706523,           0.
  38417, 0.00308696297, 0.00308696297,           0.
  38418, 0.0016706523, 0.00403331174,           0.
  38419,           0., 0.00436562486,           0.
  38420, -0.0016706523, 0.00403331174,           0.
  38421, -0.00308696297, 0.00308696297,           0.
  38422, -0.00403331174, 0.0016706523,           0.
  38423, -0.00436562486,           0.,           0.
  38424, -0.00403331174, -0.0016706523,           0.
  38425, -0.00308696297, -0.00308696297,           0.
  38426, -0.0016706523, -0.00403331174,           0.
  38427,           0., -0.00436562486,           0.
  38428, 0.0016706523, -0.00403331174,           0.
  38429, 0.00308696297, -0.00308696297,           0.
  38430, 0.00403331174, -0.0016706523,           0.
  38431, 0.00436562486,           0.,           0.
  38432, 0.00837757345, 0.0024598774,           0.
  38433, 0.00734519493, 0.00472046994,           0.
  38434, 0.00571775297, 0.00659863837,           0.
  38435, 0.00362709234, 0.00794222392,           0.
** ... 112 like lines cut
*Element, type=C3D8R
30463, 38483, 38524, 38547, 38482, 38417, 38458, 38481, 38416
30464, 38547, 38529, 38520, 38482, 38481, 38463, 38454, 38416
30465, 38524, 38483, 38484, 38546, 38458, 38417, 38418, 38480
30466, 38501, 38500, 38542, 38538, 38435, 38434, 38476, 38472
30467, 38524, 38546, 38538, 38542, 38458, 38480, 38472, 38476
30468, 38525, 38532, 38538, 38546, 38459, 38466, 38472, 38480
30469, 38532, 38525, 38485, 38537, 38466, 38459, 38419, 38471
30470, 38485, 38486, 38527, 38537, 38419, 38420, 38461, 38471
30471, 38532, 38537, 38503, 38502, 38466, 38471, 38437, 38436
30472, 38505, 38504, 38527, 38530, 38439, 38438, 38461, 38464
30473, 38527, 38486, 38487, 38530, 38461, 38420, 38421, 38464
30474, 38536, 38543, 38530, 38523, 38470, 38477, 38464, 38457
30475, 38488, 38489, 38536, 38523, 38422, 38423, 38470, 38457
30476, 38508, 38545, 38526, 38509, 38442, 38479, 38460, 38443
30477, 38490, 38531, 38526, 38489, 38424, 38465, 38460, 38423
30478, 38491, 38522, 38531, 38490, 38425, 38456, 38465, 38424
30479, 38511, 38522, 38539, 38512, 38445, 38456, 38473, 38446
30480, 38531, 38522, 38511, 38510, 38465, 38456, 38445, 38444
30481, 38533, 38539, 38492, 38493, 38467, 38473, 38426, 38427
30482, 38541, 38540, 38516, 38515, 38475, 38474, 38450, 38449
** ... 27 like lines cut
*Nset, nset=BOTWASHER-2_Set-1, generate
38416, 38547,    1
*Elset, elset=BOTWASHER-2_Set-1, generate
30463, 30509,   1
*Elset, elset=_BOTWASHER-2_WSBOT_S1, generate
30463, 30509,   1
*Surface, type=ELEMENT, name=BOTWASHER-2_WSBOT
_BOTWASHER-2_WSBOT_S1, S1
*Elset, elset=_BOTWASHER-2_WSTOP_S2, generate
30463, 30509,   1
*Surface, type=ELEMENT, name=BOTWASHER-2_WSTOP
_BOTWASHER-2_WSTOP_S2, S2
** Section: Section-1
*Solid Section, elset=BOTWASHER-2_Set-1, material=STEEL
,
** ----------------------------------------------------------------
** 
** PART INSTANCE: BOTWASHER-3
** 
*System
0.0299995375,          0.,      0.0127,1.0299995375,          0.,      0.0127
*Node
  38548, 0.00403331174, 0.0016706523,           0.
  38549, 0.00308696297, 0.00308696297,           0.
  38550, 0.0016706523, 0.00403331174,           0.
  38551,           0., 0.00436562486,           0.
  38552, -0.0016706523, 0.00403331174,           0.
  38553, -0.00308696297, 0.00308696297,           0.
  38554, -0.00403331174, 0.0016706523,           0.
  38555, -0.00436562486,           0.,           0.
  38556, -0.00403331174, -0.0016706523,           0.
  38557, -0.00308696297, -0.00308696297,           0.
  38558, -0.0016706523, -0.00403331174,           0.
  38559,           0., -0.00436562486,           0.
  38560, 0.0016706523, -0.00403331174,           0.
  38561, 0.00308696297, -0.00308696297,           0.
  38562, 0.00403331174, -0.0016706523,           0.
  38563, 0.00436562486,           0.,           0.
  38564, 0.00837757345, 0.0024598774,           0.
  38565, 0.00734519493, 0.00472046994,           0.
  38566, 0.00571775297, 0.00659863837,           0.
  38567, 0.00362709234, 0.00794222392,           0.
** ... 112 like lines cut
*Element, type=C3D8R
30510, 38615, 38656, 38679, 38614, 38549, 38590, 38613, 38548
30511, 38679, 38661, 38652, 38614, 38613, 38595, 38586, 38548
30512, 38656, 38615, 38616, 38678, 38590, 38549, 38550, 38612
30513, 38633, 38632, 38674, 38670, 38567, 38566, 38608, 38604
30514, 38656, 38678, 38670, 38674, 38590, 38612, 38604, 38608
30515, 38657, 38664, 38670, 38678, 38591, 38598, 38604, 38612
30516, 38664, 38657, 38617, 38669, 38598, 38591, 38551, 38603
30517, 38617, 38618, 38659, 38669, 38551, 38552, 38593, 38603
30518, 38664, 38669, 38635, 38634, 38598, 38603, 38569, 38568
30519, 38637, 38636, 38659, 38662, 38571, 38570, 38593, 38596
30520, 38659, 38618, 38619, 38662, 38593, 38552, 38553, 38596
30521, 38668, 38675, 38662, 38655, 38602, 38609, 38596, 38589
30522, 38620, 38621, 38668, 38655, 38554, 38555, 38602, 38589
30523, 38640, 38677, 38658, 38641, 38574, 38611, 38592, 38575
30524, 38622, 38663, 38658, 38621, 38556, 38597, 38592, 38555
30525, 38623, 38654, 38663, 38622, 38557, 38588, 38597, 38556
30526, 38643, 38654, 38671, 38644, 38577, 38588, 38605, 38578
30527, 38663, 38654, 38643, 38642, 38597, 38588, 38577, 38576
30528, 38665, 38671, 38624, 38625, 38599, 38605, 38558, 38559
30529, 38673, 38672, 38648, 38647, 38607, 38606, 38582, 38581
** ... 27 like lines cut
*Nset, nset=BOTWASHER-3_Set-1, generate
38548, 38679,    1
*Elset, elset=BOTWASHER-3_Set-1, generate
30510, 30556,   1
*Elset, elset=_BOTWASHER-3_WSBOT_S1, generate
30510, 30556,   1
*Surface, type=ELEMENT, name=BOTWASHER-3_WSBOT
_BOTWASHER-3_WSBOT_S1, S1
*Elset, elset=_BOTWASHER-3_WSTOP_S2, generate
30510, 30556,   1
*Surface, type=ELEMENT, name=BOTWASHER-3_WSTOP
_BOTWASHER-3_WSTOP_S2, S2
** Section: Section-1
*Solid Section, elset=BOTWASHER-3_Set-1, material=STEEL
,
** ----------------------------------------------------------------
** 
** PART INSTANCE: NUT-2
** 
*System
          0.,          0.,    0.014287,          1.,          0.,    0.014287
*Node
  38680, 0.00366664678, 0.00151877489,           0.
  38681, 0.0028063301, 0.0028063301,           0.
  38682, 0.00151877489, 0.00366664678,           0.
  38683,           0., 0.00396875013,           0.
  38684, -0.00151877489, 0.00366664678,           0.
  38685, -0.0028063301, 0.0028063301,           0.
  38686, -0.00366664678, 0.00151877489,           0.
  38687, -0.00396875013,           0.,           0.
  38688, -0.00366664678, -0.00151877489,           0.
  38689, -0.0028063301, -0.0028063301,           0.
  38690, -0.00151877489, -0.00366664678,           0.
  38691,           0., -0.00396875013,           0.
  38692, 0.00151877489, -0.00366664678,           0.
  38693, 0.0028063301, -0.0028063301,           0.
  38694, 0.00366664678, -0.00151877489,           0.
  38695, 0.00396875013,           0.,           0.
  38696, 0.00634999992, 0.00366617413,           0.
  38697,           0., 0.00733234826,           0.
  38698, 0.00634999992, -0.00366617413,           0.
  38699,           0., -0.00733234826,           0.
** ... 133 like lines cut
*Element, type=C3D8R
30557, 38681, 38680, 38716, 38723, 38732, 38731, 38767, 38774
30558, 38696, 38716, 38680, 38705, 38747, 38767, 38731, 38756
30559, 38725, 38682, 38681, 38723, 38776, 38733, 38732, 38774
30560, 38725, 38723, 38702, 38703, 38776, 38774, 38753, 38754
30561, 38697, 38721, 38725, 38703, 38748, 38772, 38776, 38754
30562, 38685, 38684, 38726, 38718, 38736, 38735, 38777, 38769
30563, 38686, 38685, 38718, 38715, 38737, 38736, 38769, 38766
30564, 38701, 38715, 38718, 38713, 38752, 38766, 38769, 38764
30565, 38701, 38710, 38727, 38715, 38752, 38761, 38778, 38766
30566, 38728, 38727, 38710, 38711, 38779, 38778, 38761, 38762
30567, 38700, 38714, 38728, 38711, 38751, 38765, 38779, 38762
30568, 38729, 38719, 38708, 38709, 38780, 38770, 38759, 38760
30569, 38699, 38722, 38729, 38709, 38750, 38773, 38780, 38760
30570, 38707, 38720, 38730, 38706, 38758, 38771, 38781, 38757
30571, 38724, 38717, 38720, 38707, 38775, 38768, 38771, 38758
30572, 38724, 38694, 38693, 38717, 38775, 38745, 38744, 38768
30573, 38695, 38694, 38724, 38704, 38746, 38745, 38775, 38755
30574, 38704, 38705, 38680, 38695, 38755, 38756, 38731, 38746
30575, 38692, 38720, 38717, 38693, 38743, 38771, 38768, 38744
30576, 38700, 38708, 38719, 38714, 38751, 38759, 38770, 38765
** ... 48 like lines cut
*Nset, nset=NUT-2_Set-1, generate
38680, 38832,    1
*Elset, elset=NUT-2_Set-1, generate
30557, 30624,   1
*Elset, elset=_NUT-2_NB_S3
30557,30562,30563,30573,30580,30583,30587,30588,30591,30596,30597,30607,30614,30617,30621,30622
*Elset, elset=_NUT-2_NB_S4
30559,30572,30586,30590,30593,30606,30620,30624
*Elset, elset=_NUT-2_NB_S5
30574,30589,30608,30623
*Elset, elset=_NUT-2_NB_S6
30575,30585,30609,30619
*Surface, type=ELEMENT, name=NUT-2_NB
_NUT-2_NB_S3, S3
_NUT-2_NB_S4, S4
_NUT-2_NB_S6, S6
_NUT-2_NB_S5, S5
*Elset, elset=_NUT-2_NW_S1, generate
30557, 30590,   1
*Surface, type=ELEMENT, name=NUT-2_NW
_NUT-2_NW_S1, S1
** Section: Section-1
*Solid Section, elset=NUT-2_Set-1, material=STEEL
,
** ----------------------------------------------------------------
** 
** PART INSTANCE: NUT-3
** 
*System
        0.03,          0.,    0.014287,        1.03,          0.,    0.014287
*Node
  38833, 0.00366664678, 0.00151877489,           0.
  38834, 0.0028063301, 0.0028063301,           0.
  38835, 0.00151877489, 0.00366664678,           0.
  38836,           0., 0.00396875013,           0.
  38837, -0.00151877489, 0.00366664678,           0.
  38838, -0.0028063301, 0.0028063301,           0.
  38839, -0.00366664678, 0.00151877489,           0.
  38840, -0.00396875013,           0.,           0.
  38841, -0.00366664678, -0.00151877489,           0.
  38842, -0.0028063301, -0.0028063301,           0.
  38843, -0.00151877489, -0.00366664678,           0.
  38844,           0., -0.00396875013,           0.
  38845, 0.00151877489, -0.00366664678,           0.
  38846, 0.0028063301, -0.0028063301,           0.
  38847, 0.00366664678, -0.00151877489,           0.
  38848, 0.00396875013,           0.,           0.
  38849, 0.00634999992, 0.00366617413,           0.
  38850,           0., 0.00733234826,           0.
  38851, 0.00634999992, -0.00366617413,           0.
  38852,           0., -0.00733234826,           0.
** ... 133 like lines cut
*Element, type=C3D8R
30625, 38834, 38833, 38869, 38876, 38885, 38884, 38920, 38927
30626, 38849, 38869, 38833, 38858, 38900, 38920, 38884, 38909
30627, 38878, 38835, 38834, 38876, 38929, 38886, 38885, 38927
30628, 38878, 38876, 38855, 38856, 38929, 38927, 38906, 38907
30629, 38850, 38874, 38878, 38856, 38901, 38925, 38929, 38907
30630, 38838, 38837, 38879, 38871, 38889, 38888, 38930, 38922
30631, 38839, 38838, 38871, 38868, 38890, 38889, 38922, 38919
30632, 38854, 38868, 38871, 38866, 38905, 38919, 38922, 38917
30633, 38854, 38863, 38880, 38868, 38905, 38914, 38931, 38919
30634, 38881, 38880, 38863, 38864, 38932, 38931, 38914, 38915
30635, 38853, 38867, 38881, 38864, 38904, 38918, 38932, 38915
30636, 38882, 38872, 38861, 38862, 38933, 38923, 38912, 38913
30637, 38852, 38875, 38882, 38862, 38903, 38926, 38933, 38913
30638, 38860, 38873, 38883, 38859, 38911, 38924, 38934, 38910
30639, 38877, 38870, 38873, 38860, 38928, 38921, 38924, 38911
30640, 38877, 38847, 38846, 38870, 38928, 38898, 38897, 38921
30641, 38848, 38847, 38877, 38857, 38899, 38898, 38928, 38908
30642, 38857, 38858, 38833, 38848, 38908, 38909, 38884, 38899
30643, 38845, 38873, 38870, 38846, 38896, 38924, 38921, 38897
30644, 38853, 38861, 38872, 38867, 38904, 38912, 38923, 38918
** ... 48 like lines cut
*Nset, nset=NUT-3_Set-1, generate
38833, 38985,    1
*Elset, elset=NUT-3_Set-1, generate
30625, 30692,   1
*Elset, elset=_NUT-3_NB_S3
30625,30630,30631,30641,30648,30651,30655,30656,30659,30664,30665,30675,30682,30685,30689,30690
*Elset, elset=_NUT-3_NB_S4
30627,30640,30654,30658,30661,30674,30688,30692
*Elset, elset=_NUT-3_NB_S5
30642,30657,30676,30691
*Elset, elset=_NUT-3_NB_S6
30643,30653,30677,30687
*Surface, type=ELEMENT, name=NUT-3_NB
_NUT-3_NB_S3, S3
_NUT-3_NB_S4, S4
_NUT-3_NB_S6, S6
_NUT-3_NB_S5, S5
*Elset, elset=_NUT-3_NW_S1, generate
30625, 30658,   1
*Surface, type=ELEMENT, name=NUT-3_NW
_NUT-3_NW_S1, S1
** Section: Section-1
*Solid Section, elset=NUT-3_Set-1, material=STEEL
,
** ----------------------------------------------------------------
** 
** PART INSTANCE: BPT-2
** 
*System
1.000000000001e-06,          0.,    0.016868,    1.000001,          0.,    0.016868
*Node
  38986,           0.,           0.,           0.
*Nset, nset=BPT-2-RefPt_
38986, 
*Nset, nset=BPT-2_Set-1
38986,
** ----------------------------------------------------------------
** 
** PART INSTANCE: BPT-3
** 
*System
    0.030001,          0.,    0.016868,    1.030001,          0.,    0.016868
*Node
  38987,           0.,           0.,           0.
*Nset, nset=BPT-3-RefPt_
38987, 
*Nset, nset=BPT-3_Set-1
38987,
** ----------------------------------------------------------------
** 
** PART INSTANCE: NPT-2
** 
*System
1.000000000001e-06,          0.,    0.016868,    1.000001,          0.,    0.016868
*Node
  38988,           0.,           0.,           0.
*Nset, nset=NPT-2-RefPt_
38988, 
*Nset, nset=NPT-2_Set-1
38988,
** ----------------------------------------------------------------
** 
** PART INSTANCE: NPT-3
** 
*System
    0.030001,          0.,    0.016868,    1.030001,          0.,    0.016868
*Node
  38989,           0.,           0.,           0.
*Nset, nset=NPT-3-RefPt_
38989, 
*Nset, nset=NPT-3_Set-1
38989,
** ----------------------------------------------------------------
** 
** PART INSTANCE: BOLT-2
** 
*System
1.000000000001e-06,          0.,   -0.019446,    1.000001,          0.,   -0.019446
*Node
  38990, 0.00396875013,           0., 0.0388937518
  38991, 0.00396875013,           0., 0.0337343737
  38992, 0.00396875013,           0., 0.00515937479
  38993, 0.00634999992, -0.00366617413, 0.00515937479
  38994, 0.00634999992, 0.00366617413, 0.00515937479
  38995,           0., 0.00733234826, 0.00515937479
  38996, -0.00634999992, 0.00366617413, 0.00515937479
  38997, -0.00634999992, -0.00366617413, 0.00515937479
  38998,           0., -0.00733234826, 0.00515937479
  38999,           0., 0.00733234826, -2.07871192e-10
  39000, 0.00634999992, 0.00366617413, -2.07871192e-10
  39001, 0.00634999992, -0.00366617413, -2.07871192e-10
  39002,           0., -0.00733234826, -2.07871192e-10
  39003, -0.00634999992, -0.00366617413, -2.07871192e-10
  39004, -0.00634999992, 0.00366617413, -2.07871192e-10
  39005, 0.00396875013,           0., 0.0432593748
  39006, 0.00366664678, 0.00151877489, 0.0388937518
  39007, 0.0028063301, 0.0028063301, 0.0388937518
  39008, 0.00151877489, 0.00366664678, 0.0388937518
  39009,           0., 0.00396875013, 0.0388937518
** ... 814 like lines cut
*Element, type=C3D8R
30693, 39470, 39149, 39150, 39471, 39097, 39008, 39009, 39098
30694, 39471, 39150, 39151, 39487, 39098, 39009, 39010, 39114
30695, 39469, 39148, 39149, 39470, 39096, 39007, 39008, 39097
30696, 39478, 39479, 39473, 39480, 39105, 39106, 39100, 39107
30697, 39472, 39147, 39148, 39469, 39099, 39006, 39007, 39096
30698, 39490, 39474, 39473, 39492, 39117, 39101, 39100, 39119
30699, 39493, 39478, 39480, 39475, 39120, 39105, 39107, 39102
30700, 39479, 39477, 39471, 39487, 39106, 39104, 39098, 39114
30701, 39485, 39484, 39475, 39486, 39112, 39111, 39102, 39113
30702, 39483, 39481, 39476, 39493, 39110, 39108, 39103, 39120
30703, 39470, 39471, 39477, 39469, 39097, 39098, 39104, 39096
30704, 39477, 39479, 39478, 39482, 39104, 39106, 39105, 39109
30705, 39487, 39151, 39152, 39488, 39114, 39010, 39011, 39115
30706, 39489, 39488, 39152, 39153, 39116, 39115, 39011, 39012
30707, 39154, 39492, 39489, 39153, 39013, 39119, 39116, 39012
30708, 39490, 39492, 39154, 39155, 39117, 39119, 39013, 39014
30709, 39472, 39481, 39146, 39147, 39099, 39108, 38990, 39006
30710, 39155, 39156, 39474, 39490, 39014, 39015, 39101, 39117
30711, 39156, 39157, 39491, 39474, 39015, 39016, 39118, 39101
30712, 39158, 39486, 39491, 39157, 39017, 39113, 39118, 39016
** ... 586 like lines cut
*Nset, nset=BOLT-2_Set-1, generate
38990, 39823,    1
*Elset, elset=BOLT-2_Set-1, generate
30693, 31298,    1
*Elset, elset=_BOLT-2_BlW_S1, generate
31141, 31171,    1
*Surface, type=ELEMENT, name=BOLT-2_BlW
_BOLT-2_BlW_S1, S1
*Elset, elset=_BOLT-2_BN_S4
30693,30694,30695,30697,30705,30725,30726,30727,30729,30737
*Elset, elset=_BOLT-2_BN_S5
30706,30708,30709,30714,30716,30738,30740,30741,30746,30748
*Elset, elset=_BOLT-2_BN_S6
30707,30712,30713,30739,30744,30745
*Elset, elset=_BOLT-2_BN_S3
30710,30711,30721,30742,30743,30753
*Surface, type=ELEMENT, name=BOLT-2_BN
_BOLT-2_BN_S4, S4
_BOLT-2_BN_S5, S5
_BOLT-2_BN_S6, S6
_BOLT-2_BN_S3, S3
** Section: Section-1
*Solid Section, elset=BOLT-2_Set-1, material=STEEL
,
** ----------------------------------------------------------------
** 
** PART INSTANCE: BOLT-3
** 
*System
    0.030001,          0.,   -0.019446,    1.030001,          0.,   -0.019446
*Node
  39824, 0.00396875013,           0., 0.0388937518
  39825, 0.00396875013,           0., 0.0337343737
  39826, 0.00396875013,           0., 0.00515937479
  39827, 0.00634999992, -0.00366617413, 0.00515937479
  39828, 0.00634999992, 0.00366617413, 0.00515937479
  39829,           0., 0.00733234826, 0.00515937479
  39830, -0.00634999992, 0.00366617413, 0.00515937479
  39831, -0.00634999992, -0.00366617413, 0.00515937479
  39832,           0., -0.00733234826, 0.00515937479
  39833,           0., 0.00733234826, -2.07871192e-10
  39834, 0.00634999992, 0.00366617413, -2.07871192e-10
  39835, 0.00634999992, -0.00366617413, -2.07871192e-10
  39836,           0., -0.00733234826, -2.07871192e-10
  39837, -0.00634999992, -0.00366617413, -2.07871192e-10
  39838, -0.00634999992, 0.00366617413, -2.07871192e-10
  39839, 0.00396875013,           0., 0.0432593748
  39840, 0.00366664678, 0.00151877489, 0.0388937518
  39841, 0.0028063301, 0.0028063301, 0.0388937518
  39842, 0.00151877489, 0.00366664678, 0.0388937518
  39843,           0., 0.00396875013, 0.0388937518
** ... 814 like lines cut
*Element, type=C3D8R
31299, 40304, 39983, 39984, 40305, 39931, 39842, 39843, 39932
31300, 40305, 39984, 39985, 40321, 39932, 39843, 39844, 39948
31301, 40303, 39982, 39983, 40304, 39930, 39841, 39842, 39931
31302, 40312, 40313, 40307, 40314, 39939, 39940, 39934, 39941
31303, 40306, 39981, 39982, 40303, 39933, 39840, 39841, 39930
31304, 40324, 40308, 40307, 40326, 39951, 39935, 39934, 39953
31305, 40327, 40312, 40314, 40309, 39954, 39939, 39941, 39936
31306, 40313, 40311, 40305, 40321, 39940, 39938, 39932, 39948
31307, 40319, 40318, 40309, 40320, 39946, 39945, 39936, 39947
31308, 40317, 40315, 40310, 40327, 39944, 39942, 39937, 39954
31309, 40304, 40305, 40311, 40303, 39931, 39932, 39938, 39930
31310, 40311, 40313, 40312, 40316, 39938, 39940, 39939, 39943
31311, 40321, 39985, 39986, 40322, 39948, 39844, 39845, 39949
31312, 40323, 40322, 39986, 39987, 39950, 39949, 39845, 39846
31313, 39988, 40326, 40323, 39987, 39847, 39953, 39950, 39846
31314, 40324, 40326, 39988, 39989, 39951, 39953, 39847, 39848
31315, 40306, 40315, 39980, 39981, 39933, 39942, 39824, 39840
31316, 39989, 39990, 40308, 40324, 39848, 39849, 39935, 39951
31317, 39990, 39991, 40325, 40308, 39849, 39850, 39952, 39935
31318, 39992, 40320, 40325, 39991, 39851, 39947, 39952, 39850
** ... 586 like lines cut
*Nset, nset=BOLT-3_Set-1, generate
39824, 40657,    1
*Elset, elset=BOLT-3_Set-1, generate
31299, 31904,    1
*Elset, elset=_BOLT-3_BlW_S1, generate
31747, 31777,    1
*Surface, type=ELEMENT, name=BOLT-3_BlW
_BOLT-3_BlW_S1, S1
*Elset, elset=_BOLT-3_BN_S4
31299,31300,31301,31303,31311,31331,31332,31333,31335,31343
*Elset, elset=_BOLT-3_BN_S5
31312,31314,31315,31320,31322,31344,31346,31347,31352,31354
*Elset, elset=_BOLT-3_BN_S6
31313,31318,31319,31345,31350,31351
*Elset, elset=_BOLT-3_BN_S3
31316,31317,31327,31348,31349,31359
*Surface, type=ELEMENT, name=BOLT-3_BN
_BOLT-3_BN_S4, S4
_BOLT-3_BN_S5, S5
_BOLT-3_BN_S6, S6
_BOLT-3_BN_S3, S3
** Section: Section-1
*Solid Section, elset=BOLT-3_Set-1, material=STEEL
,
*System
*Nset, nset=BOTS_NDS, unsorted
18508,18511,18514,18512,18515,18504,18507,18518,18519,18493,18492,18498,18497,18496,18478,18479
18490,18486,18487,18503,18482,18469,18468,18474,18473,18472,18489,18460,18463,18450,18453,18456
18454,18457,18464,18467,18532,18530,18535,18537,18524,18522,18527,18528,18556,18541,18542,18540
18954,18955,18956,18957,18986,18987,18982,18983,18984,18985,19002,19001,19000,18999,18998,18994
18995,18938,18939,18940,18941,18962,18961,18960,18959,18958,18967,18966,18965,18964,18963,19024
19025,19026,19027,19028,19023,19022,19021,19020,19019,19018,19017,19016,18845,18844,18843,18842
18858,18859,18860,18861,18863,18862,18880,18879,18874,18873,18872,18871,18870,18736,18737,18825
18824,18823,18822,18821,18834,18835,18836,18837,18831,18830,18793,18794,18905,18906,18907,18908
18913,18912,18911,18910,18909,18922,18923,18924,18925,18746,18745,18744,18743,18742,18767,18766
18751,18752,18753,18754,18689,18688,18687,18686,18690,18691,18692,18693,18699,18698,18720,18719
18718,18717,18716,18711,18710,18795,18796,18797,18798,18803,18802,18801,18800,18799,18812,18813
18814,18815,18624,18625,18626,18627,18558,18559,18560,18561,18632,18631,18630,18629,18628,18637
18636,18635,18634,18633,18582,18583,18584,18585,18566,18567,18600,18601,18594,18593,18592,18591
18590,18673,18672,18671,18670,18669,18668,18667,18666,18661,18662,18663,18664,18665,19167,19166
19159,19158,19184,19185,19186,19187,19188,19189,19190,19191,19192,19193,19201,19200,19206,19205
19204,19203,19202,19215,19214,19213,19212,19227,19226,19238,19239,19240,19241,19242,19228,19229
19230,19231,19232,19257,19256,19255,19254,19253,19258,19259,19260,19261,19059,19058,19051,19050
19071,19072,19073,19074,19075,19081,19082,19083,19084,19085,19087,19086,19103,19102,19101,19100
19099,19107,19106,19105,19104,19113,19112,19135,19136,19137,19138,19139,19130,19131,19132,19133
19134,19149,19148,19147,19146,19145,19154,19155,19156,19157,20454,20455,20456,20457,20458,20431
** ... 23 like lines cut
*Nset, nset=OutNodes
18546,
*Nset, nset=TOPS_NDS, unsorted
    1,    4,    5,    7,    8,   11,   14,   15,   18,   19,   20,   23,   24,   25,   29,   30
   33,   37,   38,   40,   41,   43,   44,   47,   48,   49,   54,   55,   58,   59,   62,   63
   65,   66,   69,   70,   73,   75,   78,   79,   81,   83,   86,   88,   91,   92,   93,  107
  109,  110,  111,  112,  117,  118,  133,  134,  135,  136,  141,  142,  143,  144,  145,  151
  152,  175,  176,  177,  178,  179,  180,  181,  182,  183,  184,  185,  186,  187,  188,  212
  213,  214,  215,  216,  217,  218,  219,  220,  221,  222,  223,  224,  237,  238,  239,  240
  241,  242,  243,  244,  249,  250,  261,  262,  267,  268,  269,  270,  271,  287,  288,  293
  294,  295,  296,  297,  302,  303,  304,  305,  317,  318,  344,  345,  346,  347,  348,  349
  350,  351,  352,  353,  354,  363,  364,  365,  366,  372,  373,  374,  375,  376,  381,  382
  385,  386,  387,  388,  393,  394,  395,  396,  409,  410,  411,  412,  413,  414,  421,  422
  423,  424,  425,  430,  431,  456,  457,  458,  459,  460,  461,  462,  463,  464,  473,  474
  475,  476,  489,  490,  491,  492,  505,  506,  507,  508,  509,  510,  511,  512,  513,  514
  515,  516,  517,  518,  533,  534,  535,  536,  537,  538,  545,  546,  549,  550,  551,  552
  553,  567,  568,  569,  570,  571,  572,  573,  574,  575,  576,  577,  578,  579,  601,  602
  609,  610,  622,  623,  624,  625,  626,  632,  633,  634,  635,  636,  637,  638,  650,  651
  652,  653,  654,  655,  656,  657,  658,  663,  664,  681,  682,  683,  684,  685,  686,  687
  688,  689,  690,  696,  697,  698,  699,  700,  705,  706,  707,  708,  709,  710,  717,  718
  735,  736,  737,  738,  739,  740,  741,  742,  743,  744,  751,  752,  753,  754,  755,  756
  757,  763,  764,  765,  766,  777,  778,  779,  780,  781,  782,  783,  789,  790,  791,  792
  793,  804,  805,  806,  807,  808,  809,  810,  811,  812,  830,  831,  832,  833,  834,  835
** ... 23 like lines cut
** Constraint: BNEQ1-1
*Equation
2
BPT-1_Set-1, 1, 1.
NPT-1_Set-1, 1, -1.
** Constraint: BNEQ1-2
*Equation
2
BPT-1_Set-1, 2, 1.
NPT-1_Set-1, 2, -1.
** Constraint: BNEQ1-4
*Equation
2
BPT-1_Set-1, 4, 1.
NPT-1_Set-1, 4, -1.
** Constraint: BNEQ1-5
*Equation
2
BPT-1_Set-1, 5, 1.
NPT-1_Set-1, 5, -1.
** Constraint: BNEQ1-6
*Equation
2
BPT-1_Set-1, 6, 1.
NPT-1_Set-1, 6, -1.
** Constraint: BNEQ2-1
*Equation
2
BPT-2_Set-1, 1, 1.
NPT-2_Set-1, 1, -1.
** Constraint: BNEQ2-2
*Equation
2
BPT-2_Set-1, 2, 1.
NPT-2_Set-1, 2, -1.
** Constraint: BNEQ2-4
*Equation
2
BPT-2_Set-1, 4, 1.
NPT-2_Set-1, 4, -1.
** Constraint: BNEQ2-5
*Equation
2
BPT-2_Set-1, 5, 1.
NPT-2_Set-1, 5, -1.
** Constraint: BNEQ2-6
*Equation
2
BPT-2_Set-1, 6, 1.
NPT-2_Set-1, 6, -1.
** Constraint: BNEQ3-1
*Equation
2
BPT-3_Set-1, 1, 1.
NPT-3_Set-1, 1, -1.
** Constraint: BNEQ3-2
*Equation
2
BPT-3_Set-1, 2, 1.
NPT-3_Set-1, 2, -1.
** Constraint: BNEQ3-4
*Equation
2
BPT-3_Set-1, 4, 1.
NPT-3_Set-1, 4, -1.
** Constraint: BNEQ3-5
*Equation
2
BPT-3_Set-1, 5, 1.
NPT-3_Set-1, 5, -1.
** Constraint: BNEQ3-6
*Equation
2
BPT-3_Set-1, 6, 1.
NPT-3_Set-1, 6, -1.
** Constraint: BPC-1
*Coupling, constraint name=BPC-1, ref node=BPT-1_Set-1, surface=BOLT-1_BN
*Distributing, weighting method=UNIFORM, coupling=STRUCTURAL
** Constraint: BPC-2
*Coupling, constraint name=BPC-2, ref node=BPT-2_Set-1, surface=BOLT-2_BN
*Distributing, weighting method=UNIFORM, coupling=STRUCTURAL
** Constraint: BPC-3
*Coupling, constraint name=BPC-3, ref node=BPT-3_Set-1, surface=BOLT-3_BN
*Distributing, weighting method=UNIFORM, coupling=STRUCTURAL
** Constraint: BW-1
*Tie, name=BW-1, adjust=yes
BOLT-1_BlW, TOPWASHER-1_WSTOP
** Constraint: BW-2
*Tie, name=BW-2, adjust=yes
BOLT-2_BlW, TOPWASHER-2_WSTOP
** Constraint: BW-3
*Tie, name=BW-3, adjust=yes
BOLT-3_BlW, TOPWASHER-3_WSTOP
** Constraint: BmBW-1
*Tie, name=BmBW-1, adjust=yes
BOTWASHER-1_WSTOP, BOTBEAM_BmW3
** Constraint: BmBW-2
*Tie, name=BmBW-2, adjust=yes
BOTWASHER-2_WSTOP, BOTBEAM_BmW2
** Constraint: BmBW-3
*Tie, name=BmBW-3, adjust=yes
BOTWASHER-3_WSTOP, BOTBEAM_BmW1
** Constraint: BmTW-1
*Tie, name=BmTW-1, adjust=yes
TOPWASHER-1_WSBOT, TOPBEAM_BmW1
** Constraint: BmTW-2
*Tie, name=BmTW-2, adjust=yes
TOPWASHER-2_WSBOT, TOPBEAM_BmW2
** Constraint: BmTW-3
*Tie, name=BmTW-3, adjust=yes
TOPWASHER-3_WSBOT, TOPBEAM_BmW3
** Constraint: NPC-1
*Coupling, constraint name=NPC-1, ref node=NPT-1_Set-1, surface=NUT-1_NB
*Distributing, weighting method=UNIFORM, coupling=STRUCTURAL
** Constraint: NPC-2
*Coupling, constraint name=NPC-2, ref node=NPT-2_Set-1, surface=NUT-2_NB
*Distributing, weighting method=UNIFORM, coupling=STRUCTURAL
** Constraint: NPC-3
*Coupling, constraint name=NPC-3, ref node=NPT-3_Set-1, surface=NUT-3_NB
*Distributing, weighting method=UNIFORM, coupling=STRUCTURAL
** Constraint: NW-1
*Tie, name=NW-1, adjust=yes
NUT-1_NW, BOTWASHER-1_WSBOT
** Constraint: NW-2
*Tie, name=NW-2, adjust=yes
NUT-2_NW, BOTWASHER-2_WSBOT
** Constraint: NW-3
*Tie, name=NW-3, adjust=yes
NUT-3_NW, BOTWASHER-3_WSBOT
** 
** MATERIALS
** 
*Material, name=STEEL
*Density
7800.,
*Elastic
 2e+11, 0.29
** ----------------------------------------------------------------
** 
** STEP: Fixed-Int-Modal
** 
*Step, name=Fixed-Int-Modal, nlgeom=NO, perturbation
*Frequency, eigensolver=Lanczos, sim, acoustic coupling=on, normalization=mass
60, , , , , 
** 
** BOUNDARY CONDITIONS
** 
** Name: BOTFIX Type: Symmetry/Antisymmetry/Encastre
*Boundary
BOTS_NDS, ENCASTRE
** Name: TOPFIX Type: Symmetry/Antisymmetry/Encastre
*Boundary
TOPS_NDS, ENCASTRE
** 
** OUTPUT REQUESTS
** 
*Restart, write, frequency=0
** 
** FIELD OUTPUT: F-Output-1
** 
*Output, field
*Node Output
U, 
** 
** HISTORY OUTPUT: H-Output-1
** 
*Output, history
*Energy Output
ALLKE, ALLSE
*End Step
** ----------------------------------------------------------------
** 
** STEP: HCBCMS
** 
*Step, name=HCBCMS, nlgeom=NO
*Substructure Generate, overwrite, type=Z1, recovery matrix=YES, nset=OutNodes, mass matrix=YES
*Select Eigenmodes, generate
1, 20, 1
*Damping Controls, structural=COMBINED, viscous=COMBINED
*Retained Nodal Dofs, sorted=NO
TOPS_NDS, 1, 3
BOTS_NDS, 1, 3
** 
** LOAD CASES
** 
*Substructure Load Case, name=LCASE
** Name: BoltLoad-1   Type: Concentrated force   Scale factor: 1
*Cload
BPT-1_Set-1, 3, 1.
** Name: BoltLoad-2   Type: Concentrated force   Scale factor: 1
*Cload
BPT-2_Set-1, 3, 1.
** Name: BoltLoad-3   Type: Concentrated force   Scale factor: 1
*Cload
BPT-3_Set-1, 3, 1.
** Name: NutLoad-1   Type: Concentrated force   Scale factor: 1
*Cload
NPT-1_Set-1, 3, -1.
** Name: NutLoad-2   Type: Concentrated force   Scale factor: 1
*Cload
NPT-2_Set-1, 3, -1.
** Name: NutLoad-3   Type: Concentrated force   Scale factor: 1
*Cload
NPT-3_Set-1, 3, -1.
*Substructure Matrix Output, FILE NAME=Modelmats, MASS=YES, STIFFNESS=YES, SLOAD=YES, RECOVERY MATRIX=YES
*End Step
